*Heading
** Job name: test_02_aba Model name: Model-1
** Generated by: Abaqus/CAE 6.13-3
*Preprint, echo=NO, model=NO, history=NO, contact=NO
**
** PARTS
**
*Part, name=MY_PART
*Node
      1,           0.,           2.
      2,           0.,           0.
      3,           1.,           2.
      4,           1.,           0.
      5,           2.,           2.
      6,           2.,           0.
      7,           3.,           2.
      8,           3.,           0.
*Element, type=CGAX4
1, 1, 2, 4, 3
2, 3, 4, 6, 5
3, 5, 6, 8, 7
*Nset, nset=_PickedSet2, internal, generate
 1,  8,  1
*Elset, elset=_PickedSet2, internal, generate
 1,  3,  1
*Nset, nset=BOT_SET, generate
 2,  8,  2
*Elset, elset=BOT_SET, generate
 1,  3,  1
*Nset, nset=TOP_SET, generate
 1,  7,  2
*Elset, elset=TOP_SET, generate
 1,  3,  1
*Nset, nset=INS_SET
 1, 2
*Elset, elset=INS_SET
 1,
*Nset, nset=OUT_SET
 7, 8
*Elset, elset=OUT_SET
 3,
** Section: Section-1
*Solid Section, elset=_PickedSet2, material=MY_MATERIAL
,
*End Part
**  
**
** ASSEMBLY
**
*Assembly, name=Assembly
**  
*Instance, name=MY_INSTANCE, part=MY_PART
*End Instance
**  
*End Assembly
*Amplitude, name=AMP1, time=TOTAL TIME, smooth=0.
             0.,              0., 0.002002002002002, 0.00800800800800801, 0.004004004004004, 0.016016016016016, 0.00600600600600601, 0.024024024024024
0.00800800800800801, 0.032032032032032, 0.01001001001001, 0.04004004004004, 0.012012012012012, 0.048048048048048, 0.014014014014014, 0.0560560560560561
0.016016016016016, 0.0640640640640641, 0.018018018018018, 0.0720720720720721, 0.02002002002002, 0.0800800800800801, 0.022022022022022, 0.0880880880880881
0.024024024024024, 0.0960960960960961, 0.026026026026026, 0.104104104104104, 0.028028028028028, 0.112112112112112, 0.03003003003003, 0.12012012012012
0.032032032032032, 0.128128128128128, 0.034034034034034, 0.136136136136136, 0.036036036036036, 0.144144144144144, 0.038038038038038, 0.152152152152152
0.04004004004004, 0.16016016016016, 0.042042042042042, 0.168168168168168, 0.044044044044044, 0.176176176176176, 0.046046046046046, 0.184184184184184
0.048048048048048, 0.192192192192192, 0.05005005005005, 0.2002002002002, 0.0520520520520521, 0.208208208208208, 0.0540540540540541, 0.216216216216216
0.0560560560560561, 0.224224224224224, 0.0580580580580581, 0.232232232232232, 0.0600600600600601, 0.24024024024024, 0.0620620620620621, 0.248248248248248
0.0640640640640641, 0.256256256256256, 0.0660660660660661, 0.264264264264264, 0.0680680680680681, 0.272272272272272, 0.0700700700700701, 0.28028028028028
0.0720720720720721, 0.288288288288288, 0.0740740740740741, 0.296296296296296, 0.0760760760760761, 0.304304304304304, 0.0780780780780781, 0.312312312312312
0.0800800800800801, 0.32032032032032, 0.0820820820820821, 0.328328328328328, 0.0840840840840841, 0.336336336336336, 0.0860860860860861, 0.344344344344344
0.0880880880880881, 0.352352352352352, 0.0900900900900901, 0.36036036036036, 0.0920920920920921, 0.368368368368368, 0.0940940940940941, 0.376376376376376
0.0960960960960961, 0.384384384384384, 0.0980980980980981, 0.392392392392392, 0.1001001001001, 0.4004004004004, 0.102102102102102, 0.408408408408408
0.104104104104104, 0.416416416416416, 0.106106106106106, 0.424424424424424, 0.108108108108108, 0.432432432432432, 0.11011011011011, 0.44044044044044
0.112112112112112, 0.448448448448448, 0.114114114114114, 0.456456456456456, 0.116116116116116, 0.464464464464464, 0.118118118118118, 0.472472472472472
0.12012012012012, 0.48048048048048, 0.122122122122122, 0.488488488488488, 0.124124124124124, 0.496496496496497, 0.126126126126126, 0.504504504504504
0.128128128128128, 0.512512512512513, 0.13013013013013, 0.520520520520521, 0.132132132132132, 0.528528528528529, 0.134134134134134, 0.536536536536537
0.136136136136136, 0.544544544544544, 0.138138138138138, 0.552552552552553, 0.14014014014014, 0.560560560560561, 0.142142142142142, 0.568568568568569
0.144144144144144, 0.576576576576577, 0.146146146146146, 0.584584584584585, 0.148148148148148, 0.592592592592593, 0.15015015015015, 0.600600600600601
0.152152152152152, 0.608608608608609, 0.154154154154154, 0.616616616616617, 0.156156156156156, 0.624624624624625, 0.158158158158158, 0.632632632632633
** ... 230 like lines cut
*Amplitude, name=AMP2, time=TOTAL TIME, smooth=0.
             0.,              0., 0.002002002002002, 0.0251552453893758, 0.004004004004004, 0.0502945703633662, 0.00600600600600601, 0.0754020645824016
0.00800800800800801, 0.100461837852168, 0.01001001001001, 0.125458030180296, 0.012012012012012, 0.150374821813937, 0.014014014014014, 0.175196443251869
0.016016016016016, 0.199907185224805, 0.018018018018018, 0.224491408637573, 0.02002002002002, 0.248933554466892, 0.022022022022022, 0.273218153608466
0.024024024024024, 0.297329836667172, 0.026026026026026, 0.321253343684144, 0.028028028028028, 0.34497353379459, 0.03003003003003, 0.36847539481025
0.032032032032032, 0.391744052720397, 0.034034034034034, 0.414764781105407, 0.036036036036036, 0.437523010456904, 0.038038038038038, 0.460004337398611
0.04004004004004, 0.482194533802048, 0.042042042042042, 0.504079555791325, 0.044044044044044, 0.525645552631321, 0.046046046046046, 0.546878875493627
0.048048048048048, 0.567766086094708, 0.05005005005005, 0.588293965200805, 0.0520520520520521, 0.608449520994217, 0.0540540540540541, 0.628219997295642
0.0560560560560561, 0.647592881637394, 0.0580580580580581, 0.666555913182372, 0.0600600600600601, 0.685097090483781, 0.0620620620620621, 0.703204679080684
0.0640640640640641, 0.720867218924585, 0.0660660660660661, 0.738073531632339, 0.0680680680680681, 0.754812727560799, 0.0700700700700701, 0.771074212698725
0.0720720720720721, 0.78684769537159, 0.0740740740740741, 0.802123192755044, 0.0760760760760761, 0.816891037192905, 0.0780780780780781, 0.831141882315694
0.0800800800800801, 0.844866708955818, 0.0820820820820821, 0.858056830855688, 0.0840840840840841, 0.870703900165127, 0.0860860860860861, 0.88279991272462
0.0880880880880881, 0.894337213131027, 0.0900900900900901, 0.905308499582597, 0.0920920920920921, 0.915706828500169, 0.0940940940940941, 0.925525618921678
0.0960960960960961, 0.934758656667151, 0.0980980980980981, 0.943400098271581, 0.1001001001001, 0.951444474683177, 0.102102102102102, 0.95888669472465
0.104104104104104, 0.965722048315355, 0.106106106106106, 0.971946209452234, 0.108108108108108, 0.977555238947686, 0.11011011011011, 0.982545586922628
0.112112112112112, 0.98691409505316, 0.114114114114114, 0.990657998569432, 0.116116116116116, 0.993774928005424, 0.118118118118118, 0.996262910698554
0.12012012012012, 0.998120372038146, 0.122122122122122, 0.999346136461981, 0.124124124124124, 0.999939428200294, 0.126126126126126, 0.999899871766749
0.128128128128128, 0.999227492196079, 0.13013013013013, 0.997922715028243, 0.132132132132132, 0.995986366039104, 0.134134134134134, 0.993419670717811
0.136136136136136, 0.990224253491199, 0.138138138138138, 0.986402136695715, 0.14014014014014, 0.981955739297507, 0.142142142142142, 0.976887875361493
0.144144144144144, 0.971201752270376, 0.146146146146146, 0.964900968694739, 0.148148148148148, 0.957989512315489, 0.15015015015015, 0.950471757300111
0.152152152152152, 0.942352461534319, 0.154154154154154, 0.933636763610846, 0.156156156156156, 0.924330179577308, 0.158158158158158, 0.914438599445166
** ... 230 like lines cut
*Amplitude, name=AMP3, time=TOTAL TIME, smooth=0.
             0.,              0., 0.002002002002002, 0.016016016016016, 0.004004004004004, 0.032032032032032, 0.00600600600600601, 0.048048048048048
0.00800800800800801, 0.0640640640640641, 0.01001001001001, 0.0800800800800801, 0.012012012012012, 0.0960960960960961, 0.014014014014014, 0.112112112112112
0.016016016016016, 0.128128128128128, 0.018018018018018, 0.144144144144144, 0.02002002002002, 0.16016016016016, 0.022022022022022, 0.176176176176176
0.024024024024024, 0.192192192192192, 0.026026026026026, 0.208208208208208, 0.028028028028028, 0.224224224224224, 0.03003003003003, 0.24024024024024
0.032032032032032, 0.256256256256256, 0.034034034034034, 0.272272272272272, 0.036036036036036, 0.288288288288288, 0.038038038038038, 0.304304304304304
0.04004004004004, 0.32032032032032, 0.042042042042042, 0.336336336336336, 0.044044044044044, 0.352352352352352, 0.046046046046046, 0.368368368368368
0.048048048048048, 0.384384384384384, 0.05005005005005, 0.4004004004004, 0.0520520520520521, 0.416416416416416, 0.0540540540540541, 0.432432432432432
0.0560560560560561, 0.448448448448448, 0.0580580580580581, 0.464464464464464, 0.0600600600600601, 0.48048048048048, 0.0620620620620621, 0.496496496496497
0.0640640640640641, 0.512512512512513, 0.0660660660660661, 0.528528528528529, 0.0680680680680681, 0.544544544544544, 0.0700700700700701, 0.560560560560561
0.0720720720720721, 0.576576576576577, 0.0740740740740741, 0.592592592592593, 0.0760760760760761, 0.608608608608609, 0.0780780780780781, 0.624624624624625
0.0800800800800801, 0.640640640640641, 0.0820820820820821, 0.656656656656657, 0.0840840840840841, 0.672672672672673, 0.0860860860860861, 0.688688688688689
0.0880880880880881, 0.704704704704705, 0.0900900900900901, 0.720720720720721, 0.0920920920920921, 0.736736736736737, 0.0940940940940941, 0.752752752752753
0.0960960960960961, 0.768768768768769, 0.0980980980980981, 0.784784784784785, 0.1001001001001, 0.800800800800801, 0.102102102102102, 0.816816816816817
0.104104104104104, 0.832832832832833, 0.106106106106106, 0.848848848848849, 0.108108108108108, 0.864864864864865, 0.11011011011011, 0.880880880880881
0.112112112112112, 0.896896896896897, 0.114114114114114, 0.912912912912913, 0.116116116116116, 0.928928928928929, 0.118118118118118, 0.944944944944945
0.12012012012012, 0.960960960960961, 0.122122122122122, 0.976976976976977, 0.124124124124124, 0.992992992992993, 0.126126126126126, 0.990990990990991
0.128128128128128, 0.974974974974975, 0.13013013013013, 0.958958958958959, 0.132132132132132, 0.942942942942943, 0.134134134134134, 0.926926926926927
0.136136136136136, 0.910910910910911, 0.138138138138138, 0.894894894894895, 0.14014014014014, 0.878878878878879, 0.142142142142142, 0.862862862862863
0.144144144144144, 0.846846846846847, 0.146146146146146, 0.830830830830831, 0.148148148148148, 0.814814814814815, 0.15015015015015, 0.798798798798799
0.152152152152152, 0.782782782782783, 0.154154154154154, 0.766766766766767, 0.156156156156156, 0.750750750750751, 0.158158158158158, 0.734734734734735
** ... 230 like lines cut
*Amplitude, name=AMP4, time=TOTAL TIME, smooth=0.
             0.,              0., 0.002002002002002, 0.0125786178387411, 0.004004004004004, 0.0251552453893758, 0.00600600600600601, 0.0377278926787172
0.00800800800800801, 0.0502945703633662, 0.01001001001001, 0.0628532900444819, 0.012012012012012, 0.0754020645824016, 0.014014014014014, 0.0879389084110613
0.016016016016016, 0.100461837852168, 0.018018018018018, 0.112968871429073, 0.02002002002002, 0.125458030180296, 0.022022022022022, 0.137927337972654
0.024024024024024, 0.150374821813937, 0.026026026026026, 0.162798512165094, 0.028028028028028, 0.175196443251869, 0.03003003003003, 0.187566653375837
0.032032032032032, 0.199907185224805, 0.034034034034034, 0.212216086182508, 0.036036036036036, 0.224491408637573, 0.038038038038038, 0.23673121029168
0.04004004004004, 0.248933554466892, 0.042042042042042, 0.261096510412088, 0.044044044044044, 0.273218153608466, 0.046046046046046, 0.28529656607405
0.048048048048048, 0.297329836667172, 0.05005005005005, 0.309316061388869, 0.0520520520520521, 0.321253343684144, 0.0540540540540541, 0.333139794742058
0.0560560560560561, 0.34497353379459, 0.0580580580580581, 0.356752688414232, 0.0600600600600601, 0.36847539481025, 0.0620620620620621, 0.380139798123597
0.0640640640640641, 0.391744052720397, 0.0660660660660661, 0.403286322483981, 0.0680680680680681, 0.414764781105407, 0.0700700700700701, 0.426177612372435
0.0720720720720721, 0.437523010456904, 0.0740740740740741, 0.448799180200462, 0.0760760760760761, 0.460004337398611, 0.0780780780780781, 0.471136709083018
0.0800800800800801, 0.482194533802048, 0.0820820820820821, 0.493176061899474, 0.0840840840840841, 0.504079555791325, 0.0860860860860861, 0.514903290240813
0.0880880880880881, 0.525645552631321, 0.0900900900900901, 0.536304643237382, 0.0920920920920921, 0.546878875493627, 0.0940940940940941, 0.557366576261642
0.0960960960960961, 0.567766086094708, 0.0980980980980981, 0.578075759500371, 0.1001001001001, 0.588293965200805, 0.102102102102102, 0.598419086390927
0.104104104104104, 0.608449520994217, 0.106106106106106, 0.618383681916215, 0.108108108108108, 0.628219997295642, 0.11011011011011, 0.637956910753112
0.112112112112112, 0.647592881637394, 0.114114114114114, 0.657126385269189, 0.116116116116116, 0.666555913182372, 0.118118118118118, 0.675879973362679
0.12012012012012, 0.685097090483781, 0.122122122122122, 0.694205806140722, 0.124124124124124, 0.703204679080684, 0.126126126126126, 0.712092285431025
0.128128128128128, 0.720867218924585, 0.13013013013013, 0.729528091122189, 0.132132132132132, 0.738073531632339, 0.134134134134134, 0.746502188328052
0.136136136136136, 0.754812727560799, 0.138138138138138, 0.763003834371527, 0.14014014014014, 0.771074212698725, 0.142142142142142, 0.779022585583491
0.144144144144144, 0.78684769537159, 0.146146146146146, 0.794548303912444, 0.148148148148148, 0.802123192755044, 0.15015015015015, 0.809571163340744
0.152152152152152, 0.816891037192905, 0.154154154154154, 0.824081656103364, 0.156156156156156, 0.831141882315694, 0.158158158158158, 0.838070598705226
** ... 230 like lines cut
** 
** MATERIALS
** 
*Material, name=MY_MATERIAL
*Elastic
210000., 0.3
*Plastic, hardening=COMBINED, datatype=PARAMETERS, number backstresses=1
400.,5000.,  10.
*Cyclic Hardening, parameters
400.,400., 25.
** 
** BOUNDARY CONDITIONS
** 
** Name: FIXED_BC Type: Displacement/Rotation
*Boundary
MY_INSTANCE.BOT_SET, 2, 2
MY_INSTANCE.BOT_SET, 5, 5
** ----------------------------------------------------------------
** 
** STEP: STEP1
** 
*Step, name=STEP1, nlgeom=NO, inc=64
*Static, direct
0.002, 0.125, 
** 
** BOUNDARY CONDITIONS
** 
** Name: AXIAL_DISP Type: Displacement/Rotation
*Boundary, amplitude=AMP1
MY_INSTANCE.TOP_SET, 2, 2, 0.08
** Name: INSIDE Type: Displacement/Rotation
*Boundary, amplitude=AMP3
MY_INSTANCE.INS_SET, 1, 1
** Name: OUTSIDE Type: Displacement/Rotation
*Boundary, amplitude=AMP4
MY_INSTANCE.OUT_SET, 1, 1, 0.06
** Name: ROTATION Type: Displacement/Rotation
*Boundary, amplitude=AMP2
MY_INSTANCE.TOP_SET, 5, 5, 0.0333333
** 
** OUTPUT REQUESTS
** 
*Restart, write, frequency=0
** 
** FIELD OUTPUT: DefaultFieldOutput, F-Output-1
** 
*Output, field, variable=PRESELECT
** 
** HISTORY OUTPUT: INSIDE_OUTPUT
** 
*Output, history
*Node Output, nset=MY_INSTANCE.INS_SET
RF1, U1
** 
** HISTORY OUTPUT: OUTSIDE_OUTPUT
** 
*Node Output, nset=MY_INSTANCE.OUT_SET
RF1, U1
** 
** HISTORY OUTPUT: AXIAL_OUTPUT
** 
*Node Output, nset=MY_INSTANCE.TOP_SET
RF2, RM2, U2, UR2
** 
** HISTORY OUTPUT: H-Output-1
** 
*Output, history, variable=PRESELECT
*End Step
** ----------------------------------------------------------------
** 
** STEP: STEP2
** 
*Step, name=STEP2, nlgeom=NO, inc=127
*Static, direct
0.002, 0.25, 
** 
** OUTPUT REQUESTS
** 
*Restart, write, frequency=0
** 
** FIELD OUTPUT: DefaultFieldOutput, F-Output-1
** 
*Output, field, variable=PRESELECT
** 
** HISTORY OUTPUT: INSIDE_OUTPUT
** 
*Output, history
*Node Output, nset=MY_INSTANCE.INS_SET
RF1, U1
** 
** HISTORY OUTPUT: OUTSIDE_OUTPUT
** 
*Node Output, nset=MY_INSTANCE.OUT_SET
RF1, U1
** 
** HISTORY OUTPUT: AXIAL_OUTPUT
** 
*Node Output, nset=MY_INSTANCE.TOP_SET
RF2, RM2, U2, UR2
** 
** HISTORY OUTPUT: H-Output-1
** 
*Output, history, variable=PRESELECT
*End Step
** ----------------------------------------------------------------
** 
** STEP: STEP3
** 
*Step, name=STEP3, nlgeom=NO, inc=127
*Static, direct
0.002, 0.25, 
** 
** OUTPUT REQUESTS
** 
*Restart, write, frequency=0
** 
** FIELD OUTPUT: DefaultFieldOutput, F-Output-1
** 
*Output, field, variable=PRESELECT
** 
** HISTORY OUTPUT: INSIDE_OUTPUT
** 
*Output, history
*Node Output, nset=MY_INSTANCE.INS_SET
RF1, U1
** 
** HISTORY OUTPUT: OUTSIDE_OUTPUT
** 
*Node Output, nset=MY_INSTANCE.OUT_SET
RF1, U1
** 
** HISTORY OUTPUT: AXIAL_OUTPUT
** 
*Node Output, nset=MY_INSTANCE.TOP_SET
RF2, RM2, U2, UR2
** 
** HISTORY OUTPUT: H-Output-1
** 
*Output, history, variable=PRESELECT
*End Step
** ----------------------------------------------------------------
** 
** STEP: STEP4
** 
*Step, name=STEP4, nlgeom=NO, inc=127
*Static, direct
0.002, 0.25, 
** 
** OUTPUT REQUESTS
** 
*Restart, write, frequency=0
** 
** FIELD OUTPUT: DefaultFieldOutput, F-Output-1
** 
*Output, field, variable=PRESELECT
** 
** HISTORY OUTPUT: INSIDE_OUTPUT
** 
*Output, history
*Node Output, nset=MY_INSTANCE.INS_SET
RF1, U1
** 
** HISTORY OUTPUT: OUTSIDE_OUTPUT
** 
*Node Output, nset=MY_INSTANCE.OUT_SET
RF1, U1
** 
** HISTORY OUTPUT: AXIAL_OUTPUT
** 
*Node Output, nset=MY_INSTANCE.TOP_SET
RF2, RM2, U2, UR2
** 
** HISTORY OUTPUT: H-Output-1
** 
*Output, history, variable=PRESELECT
*End Step
** ----------------------------------------------------------------
** 
** STEP: STEP5
** 
*Step, name=STEP5, nlgeom=NO, inc=127
*Static, direct
0.002, 0.25, 
** 
** OUTPUT REQUESTS
** 
*Restart, write, frequency=0
** 
** FIELD OUTPUT: DefaultFieldOutput, F-Output-1
** 
*Output, field, variable=PRESELECT
** 
** HISTORY OUTPUT: INSIDE_OUTPUT
** 
*Output, history
*Node Output, nset=MY_INSTANCE.INS_SET
RF1, U1
** 
** HISTORY OUTPUT: OUTSIDE_OUTPUT
** 
*Node Output, nset=MY_INSTANCE.OUT_SET
RF1, U1
** 
** HISTORY OUTPUT: AXIAL_OUTPUT
** 
*Node Output, nset=MY_INSTANCE.TOP_SET
RF2, RM2, U2, UR2
** 
** HISTORY OUTPUT: H-Output-1
** 
*Output, history, variable=PRESELECT
*End Step
** ----------------------------------------------------------------
** 
** STEP: STEP6
** 
*Step, name=STEP6, nlgeom=NO, inc=127
*Static, direct
0.002, 0.25, 
** 
** OUTPUT REQUESTS
** 
*Restart, write, frequency=0
** 
** FIELD OUTPUT: DefaultFieldOutput, F-Output-1
** 
*Output, field, variable=PRESELECT
** 
** HISTORY OUTPUT: INSIDE_OUTPUT
** 
*Output, history
*Node Output, nset=MY_INSTANCE.INS_SET
RF1, U1
** 
** HISTORY OUTPUT: OUTSIDE_OUTPUT
** 
*Node Output, nset=MY_INSTANCE.OUT_SET
RF1, U1
** 
** HISTORY OUTPUT: AXIAL_OUTPUT
** 
*Node Output, nset=MY_INSTANCE.TOP_SET
RF2, RM2, U2, UR2
** 
** HISTORY OUTPUT: H-Output-1
** 
*Output, history, variable=PRESELECT
*End Step
** ----------------------------------------------------------------
** 
** STEP: STEP7
** 
*Step, name=STEP7, nlgeom=NO, inc=127
*Static, direct
0.002, 0.25, 
** 
** OUTPUT REQUESTS
** 
*Restart, write, frequency=0
** 
** FIELD OUTPUT: DefaultFieldOutput, F-Output-1
** 
*Output, field, variable=PRESELECT
** 
** HISTORY OUTPUT: INSIDE_OUTPUT
** 
*Output, history
*Node Output, nset=MY_INSTANCE.INS_SET
RF1, U1
** 
** HISTORY OUTPUT: OUTSIDE_OUTPUT
** 
*Node Output, nset=MY_INSTANCE.OUT_SET
RF1, U1
** 
** HISTORY OUTPUT: AXIAL_OUTPUT
** 
*Node Output, nset=MY_INSTANCE.TOP_SET
RF2, RM2, U2, UR2
** 
** HISTORY OUTPUT: H-Output-1
** 
*Output, history, variable=PRESELECT
*End Step
** ----------------------------------------------------------------
** 
** STEP: STEP8
** 
*Step, name=STEP8, nlgeom=NO, inc=127
*Static, direct
0.002, 0.25, 
** 
** OUTPUT REQUESTS
** 
*Restart, write, frequency=0
** 
** FIELD OUTPUT: DefaultFieldOutput, F-Output-1
** 
*Output, field, variable=PRESELECT
** 
** HISTORY OUTPUT: INSIDE_OUTPUT
** 
*Output, history
*Node Output, nset=MY_INSTANCE.INS_SET
RF1, U1
** 
** HISTORY OUTPUT: OUTSIDE_OUTPUT
** 
*Node Output, nset=MY_INSTANCE.OUT_SET
RF1, U1
** 
** HISTORY OUTPUT: AXIAL_OUTPUT
** 
*Node Output, nset=MY_INSTANCE.TOP_SET
RF2, RM2, U2, UR2
** 
** HISTORY OUTPUT: H-Output-1
** 
*Output, history, variable=PRESELECT
*End Step
** ----------------------------------------------------------------
** 
** STEP: STEP9
** 
*Step, name=STEP9, nlgeom=NO, inc=64
*Static, direct
0.002, 0.125, 
** 
** OUTPUT REQUESTS
** 
*Restart, write, frequency=0
** 
** FIELD OUTPUT: DefaultFieldOutput, F-Output-1
** 
*Output, field, variable=PRESELECT
** 
** HISTORY OUTPUT: INSIDE_OUTPUT
** 
*Output, history
*Node Output, nset=MY_INSTANCE.INS_SET
RF1, U1
** 
** HISTORY OUTPUT: OUTSIDE_OUTPUT
** 
*Node Output, nset=MY_INSTANCE.OUT_SET
RF1, U1
** 
** HISTORY OUTPUT: AXIAL_OUTPUT
** 
*Node Output, nset=MY_INSTANCE.TOP_SET
RF2, RM2, U2, UR2
** 
** HISTORY OUTPUT: H-Output-1
** 
*Output, history, variable=PRESELECT
*End Step
